*Heading
** Job name: comp_23 Model name: Model-1
** Generated by: Abaqus/CAE 2021
*Preprint, echo=NO, model=NO, history=NO, contact=NO
**
** PARTS
**
*Part, name=rhino_603
*Node
      1,  -1.54151666,  0.674636066,  0.962767303
      2,   -1.5184226,  0.674636066,  0.962767303
      3,   -1.5184226,  0.697730124,  0.962767303
      4,  -1.54151666,  0.697730124,  0.962767303
      5,  -1.54151666,  0.674636066,  0.939673305
      6,  -1.54151666,  0.697730124,  0.939673305
      7,  0.620992839,   1.50479269,   1.03715312
      8,  0.644086838,   1.50479269,   1.03715312
      9,  0.644086838,   1.50479269,   1.01405919
     10,  0.620992839,   1.50479269,   1.01405919
     11,  -1.39323783, -0.629808486,   -1.1894803
     12,  -1.37014377, -0.629808486,   -1.1894803
     13,  -1.37014377, -0.606714487,   -1.1894803
     14,  -1.39323783, -0.606714487,   -1.1894803
     15,  -1.37014377, -0.606714487,  -1.21257436
     16,  -1.39323783, -0.606714487,  -1.21257436
     17,  -1.39323783, -0.629808486,  -1.21257436
     18,  -1.36865032, -0.632849753,   -1.1968869
     19,  -1.36804211, -0.631910145,  -1.19579005
     20,  -1.37411368, -0.631349385,  -1.21411526
** ... 15217 like lines cut
*Element, type=C3D4
    1,  8129,  8130,  8131,  8132
    2,  8133,  8134,  8135,  8136
    3,  8137,  8132,  8138,  8139
    4,  3055,  8140,   164,   166
    5,  8132,  8141,  8139,  8137
    6,  8132,  8142,  8130,  8143
    7,  8132,  8139,  8129,  8138
    8,  8144,  8145,  8146,  8147
    9,  8144,  8145,  8147,  8148
   10,  8148,  8144,  8149,  8150
   11,  5593,  5889,  8151,  5908
   12,  8152,  8147,  8148,  8144
   13,  8144,  8153,  8154,  8155
   14,  8156,  8135,  8157,  8158
   15,  8159,  8155,  8149,  8154
   16,  8160,  8149,  8155,  8150
   17,  8144,  8154,  8145,  8149
   18,  8132,  8142,  8161,  8130
   19,  8132,  8142,  8137,  8162
   20,  8162,  8137,  8132,  8138
** ... 63134 like lines cut
*Nset, nset=_PickedSet6, internal, generate
     1,  15237,      1
*Elset, elset=_PickedSet6, internal, generate
     1,  63154,      1
*Nset, nset=Set-5, generate
     1,  15237,      1
*Elset, elset=Set-5, generate
     1,  63154,      1
** Section: ti
*Solid Section, elset=Set-5, material=Ti
,
*End Part
**  
**
** ASSEMBLY
**
*Assembly, name=Assembly
**  
*Instance, name=rhino_603-1, part=rhino_603
*End Instance
**  
*Node
      1,          10.,          10.,         12.5
*Node
      2,          10.,          10.,         12.5
*Nset, nset=bot, instance=rhino_603-1
  155,  156,  157,  158,  174,  175,  177,  178,  479,  480,  482,  483,  544,  545,  546,  547
 1770, 1771, 1772, 1773, 1774, 1775, 1776, 1777, 1795, 1796, 1801, 1802, 1805, 1806, 1807, 1808
 2033, 2034, 2039, 2040, 2043, 2044, 2045, 2046, 2079, 2080, 2081, 2082, 2083, 2084, 2085, 2086
 2931, 2932, 2933, 2934, 2951, 2952, 2953, 2954, 3012, 3013, 3014, 3015, 3043, 3044, 3045, 3046
*Elset, elset=bot, instance=rhino_603-1
   675,  1643,  1769,  4686,  6713,  6732,  9370,  9383,  9393,  9394,  9395,  9409,  9416,  9417,  9426,  9430
  9439,  9472,  9474,  9475,  9490,  9558,  9705,  9713,  9838,  9863,  9877,  9879,  9886, 13299, 13403, 13410
 13413, 13423, 13428, 13432, 13437, 13972, 13974, 14027, 14160, 14166, 14183, 14193, 14197, 14207, 14220, 14230
 14249, 14260, 14298, 14325, 14354, 14424, 14428, 14476, 14478, 14532, 14539, 14594, 14614, 19143, 19157, 19169
 36102, 39538, 40719, 50514, 51151, 52026, 52403, 53474
*Nset, nset=rp
 1,
*Nset, nset=top, instance=rhino_603-1
  301,  302,  303,  304,  316,  317,  318,  319,  392,  393,  394,  395, 1219, 1220, 1222, 1223
 1881, 1882, 1883, 1884, 1885, 1886, 1887, 1888, 1905, 1906, 1909, 1910, 1911, 1912, 1913, 1914
 1978, 1979, 1980, 1981, 1982, 1983, 1984, 1985, 2581, 2582, 2587, 2588, 2591, 2592, 2593, 2594
 2961, 2962, 2963, 2964, 2977, 2978, 2979, 2980, 2985, 2986, 2987, 2988, 3762, 3763, 3764, 3765
*Elset, elset=top, instance=rhino_603-1
  1312,  1720,  2062,  2788,  3481,  3507,  4469,  4532,  5413,  6032, 11108, 11133, 11146, 11156, 11164, 11168
 11173, 11181, 11184, 11273, 11393, 11396, 11402, 11435, 11461, 11466, 11481, 11502, 11507, 12314, 12315, 12320
 12335, 12336, 12341, 12351, 12356, 12358, 12376, 12407, 12421, 12439, 16418, 16431, 16534, 16572, 16617, 16625
 16644, 16688, 16694, 21130, 27044, 27094, 27099, 27179, 27204, 27205, 27209, 27244, 27248, 27253, 27283, 29369
 48615, 48671, 48688, 51471, 51811, 53411, 53439, 54838
** Constraint: Constraint-1
*Equation
2
top, 2, 1.
rp, 2, -1.
*End Assembly
** 
** MATERIALS
** 
*Material, name=Ti
*Elastic
 1.1e+08, 0.33
** 
** BOUNDARY CONDITIONS
** 
** Name: BC-1 Type: Displacement/Rotation
*Boundary
top, 1, 1
top, 3, 3
** Name: bot Type: Displacement/Rotation
*Boundary
bot, 2, 2
** ----------------------------------------------------------------
** 
** STEP: Step-1
** 
*Step, name=Step-1, nlgeom=NO
*Static
1., 1., 1e-05, 1.
** 
** BOUNDARY CONDITIONS
** 
** Name: BC-3 Type: Displacement/Rotation
*Boundary
rp, 2, 2, -1.5
** 
** OUTPUT REQUESTS
** 
*Restart, write, frequency=0
** 
** FIELD OUTPUT: F-Output-1
** 
*Output, field, variable=PRESELECT
** 
** HISTORY OUTPUT: H-Output-1
** 
*Output, history, variable=PRESELECT
*End Step
